#Put Keywords Here, check Charge and Multiplicity.

 

0  1
C           1.08716         0.06130        -0.01131
C           2.60175         0.05500        -0.00743
O           3.08187        -1.27184        -0.16835
H           0.70121         1.07887         0.09577
H           0.69543        -0.55197         0.80686
H           0.70251        -0.36714        -0.94265
H           2.99356         0.45888         0.93099
H           2.98920         0.66035        -0.83202
H           2.74061        -1.79912         0.57401

